data_LEV
#**************************************************************************
#
# CIF taken from the IZA-SC Database of Zeolite Structures
# Ch. Baerlocher and L.B. McCusker
# Database of Zeolite Structures: http://www.iza-structure.org/databases/ 
#
# The atom coordinates and the cell parameters were optimized with DLS76
# assuming a pure SiO2 composition.
#
#**************************************************************************

_cell_length_a                  13.1680(0)
_cell_length_b                  13.1680(0)
_cell_length_c                  22.5780(0)
_cell_angle_alpha               90.0000(0)
_cell_angle_beta                90.0000(0)
_cell_angle_gamma              120.0000(0)

_symmetry_space_group_name_H-M     'R -3 m'
_symmetry_Int_Tables_number         166
_symmetry_cell_setting             trigonal

loop_
_symmetry_equiv_pos_as_xyz
'+x,+y,+z'
'2/3+x,1/3+y,1/3+z'
'1/3+x,2/3+y,2/3+z'
'-y,+x-y,+z'
'2/3-y,1/3+x-y,1/3+z'
'1/3-y,2/3+x-y,2/3+z'
'-x+y,-x,+z'
'2/3-x+y,1/3-x,1/3+z'
'1/3-x+y,2/3-x,2/3+z'
'-y,-x,+z'
'2/3-y,1/3-x,1/3+z'
'1/3-y,2/3-x,2/3+z'
'-x+y,+y,+z'
'2/3-x+y,1/3+y,1/3+z'
'1/3-x+y,2/3+y,2/3+z'
'+x,+x-y,+z'
'2/3+x,1/3+x-y,1/3+z'
'1/3+x,2/3+x-y,2/3+z'
'-x,-y,-z'
'2/3-x,1/3-y,1/3-z'
'1/3-x,2/3-y,2/3-z'
'+y,-x+y,-z'
'2/3+y,1/3-x+y,1/3-z'
'1/3+y,2/3-x+y,2/3-z'
'+x-y,+x,-z'
'2/3+x-y,1/3+x,1/3-z'
'1/3+x-y,2/3+x,2/3-z'
'+y,+x,-z'
'2/3+y,1/3+x,1/3-z'
'1/3+y,2/3+x,2/3-z'
'+x-y,-y,-z'
'2/3+x-y,1/3-y,1/3-z'
'1/3+x-y,2/3-y,2/3-z'
'-x,-x+y,-z'
'2/3-x,1/3-x+y,1/3-z'
'1/3-x,2/3-x+y,2/3-z'

loop_
_atom_site_label
_atom_site_type_symbol
_atom_site_fract_x
_atom_site_fract_y
_atom_site_fract_z
    O1    O     0.0955    0.1910    0.0771
    O2    O     0.0347    0.3448    0.1097
    O3    O     0.8724    0.1276    0.0862
    O4    O     0.0000    0.2678    0.0000
    O5    O     0.1127    0.8873    0.4881
    T1    Si    0.0005    0.2327    0.0683
    T2    Si    0.2397    0.0000    0.5000

